78
Energy =
C    -2.6466250   -1.0107013   -0.1343928 
C    -3.4780739    0.0829736    0.1679728 
C    -2.8905224    1.2343756    0.7170471 
C    -1.5215102    1.2862066    0.9525159 
C    -0.6798448    0.1969814    0.6670440 
C    -1.2826330   -0.9512864    0.1185336 
H    -3.0771345   -1.9029925   -0.5869923 
H    -3.5184731    2.0891394    0.9650818 
H    -1.1003182    2.1834991    1.4065238 
H    -0.6598821   -1.8033515   -0.1554102 
C     0.7684245    0.2545894    0.9290981 
C     1.4895664    1.4577534    0.8061353 
H     0.9743531    2.3584509    0.4711894 
C     2.8553253    1.5191390    1.0485656 
H     3.3894493    2.4590822    0.9160533 
C     3.5636083    0.3697354    1.4434729 
C     1.4920162   -0.8881161    1.3125550 
H     0.9664860   -1.8335506    1.4490399 
C     2.8568789   -0.8370368    1.5716693 
H     3.3861632   -1.7364442    1.8837203 
N     4.9565767    0.4134461    1.6616316 
N    -4.8597251    0.0474068   -0.1135328 
C     5.7321390   -0.7664537    1.4726146 
C     6.4419273   -1.2962619    2.5374840 
H     6.3875835   -0.7979863    3.5050235 
C     5.7954090   -1.3890325    0.1851312 
C     6.5694622   -2.5914221    0.0459208 
C     7.2742399   -3.1052508    1.1646703 
H     7.8642956   -4.0141687    1.0411818 
C     7.2209295   -2.4603399    2.3818640 
H     7.7672007   -2.8555473    3.2381253 
C     5.5805882    1.5404969    2.2471659 
C     6.8934688    1.8771466    1.8760508 
H     7.4080281    1.2702196    1.1317505 
C     4.9226915    2.3249097    3.2087725 
H     3.9099982    2.0640760    3.5122986 
C     7.5297643    2.9708500    2.4566114 
H     8.5476529    3.2180645    2.1545273 
C     6.8703439    3.7562599    3.4058468 
H     7.3692269    4.6143375    3.8546521 
C     5.5643591    3.4252244    3.7739376 
H     5.0405993    4.0204042    4.5223509 
C    -5.6189395   -1.1377311    0.0299162 
C    -5.3099707   -2.0920683    1.0131696 
H    -4.4674582   -1.9208556    1.6814449 
C    -6.0804535   -3.2467048    1.1357200 
H    -5.8290862   -3.9747027    1.9073906 
C    -7.1755091   -3.4664510    0.2971152 
H    -7.7775744   -4.3683507    0.4006384 
C    -7.4903360   -2.5131031   -0.6747668 
H    -8.3390046   -2.6708307   -1.3406498 
C    -6.7195364   -1.3622926   -0.8146591 
H    -6.9639851   -0.6238139   -1.5774836 
C    -5.5517521    1.2667546   -0.3679779 
C    -6.5877816    1.6523665    0.4662369 
H    -6.8508898    1.0120846    1.3077842 
C    -7.2923073    2.8518271    0.2395584 
H    -8.1015900    3.1313507    0.9138983 
C    -6.9473900    3.6742050   -0.8116793 
H    -7.4797864    4.6103034   -0.9843284 
C    -5.1921360    2.0779313   -1.4910094 
C    -5.8985976    3.3121172   -1.6956293 
C    -4.1899833    1.7032425   -2.4225122 
H    -3.6633780    0.7608252   -2.2848718 
C    -3.8801739    2.5166616   -3.4918845 
H    -3.1099771    2.2097382   -4.1993750 
C    -4.5544749    3.7449303   -3.6793936 
H    -4.2948928    4.3819532   -4.5249094 
C    -5.5440794    4.1289743   -2.8013569 
H    -6.0791011    5.0688988   -2.9457021 
C     5.1510162   -0.8567753   -0.9611615 
H     4.5785691    0.0641204   -0.8686811 
C     5.2425598   -1.4916399   -2.1817262 
H     4.7435164   -1.0650199   -3.0517150 
C     5.9798230   -2.6904425   -2.3146315 
H     6.0379650   -3.1862826   -3.2835636 
C     6.6312313   -3.2231716   -1.2239754 
H     7.2140699   -4.1405639   -1.3200109 
