108
Energy =
C     1.6284692    2.5873270   -0.1217606 
C     2.0938852    1.9680694    0.9651093 
C     3.4291431    1.3242777    0.7275142 
C     3.6142503    1.3555603   -0.8409767 
C     2.5651419    2.4866895   -1.2992118 
C     1.6294920   -1.2330697    2.2267239 
C     2.0955269   -1.8652950    1.1473803 
C     3.4301855   -1.3371213    0.7080101 
C     3.6145060    0.0059607    1.5191732 
C     2.5654340   -0.1625886    2.7280618 
C     1.6286469   -1.3559060   -2.2565687 
C     2.0946187   -0.1052148   -2.2639541 
C     3.4296203    0.0109095   -1.5871971 
C     3.6142617   -1.3631897   -0.8298725 
C     2.5648625   -2.3252978   -1.5804179 
C    -0.6278446   -3.6836919   -0.0720498 
C     0.2909543   -3.7803502   -1.3541039 
C     1.8005975   -3.4662344   -0.8279671 
C     1.6907324   -3.2371309    0.7266237 
C     0.2805930   -3.6885794    1.2101301 
C    -0.6272467    1.8608262   -3.2309799 
C     0.2920412    3.0190776   -2.6731295 
C     1.8012344    2.4055673   -2.6637807 
C     1.6908057    0.9447374   -3.2423159 
C     0.2810289    0.7523169   -3.8758079 
C    -0.6280163    1.8237683    3.1508364 
C     0.2911979    0.7613243    3.8749105 
C     1.8007246    1.0598099    3.3397047 
C     1.6902589    2.2908971    2.3635735 
C     0.2806153    2.9360621    2.5133939 
C    -1.6284456   -2.5872128   -0.1221911 
C    -2.0939147   -1.9678173    0.9649153 
C    -3.4291610   -1.3241106    0.7272348 
C    -3.6142435   -1.3552203   -0.8412682 
C    -2.5651514   -2.4864211   -1.2995444 
C    -1.6296212    1.2331898    2.2266944 
C    -2.0955361    1.8655422    1.1474018 
C    -3.4301687    1.3374112    0.7078737 
C    -3.6145692   -0.0058011    1.5189205 
C    -2.5656004    0.1626348    2.7278435 
C    -1.6284225    1.3563066   -2.2566093 
C    -2.0944795    0.1054827   -2.2640047 
C    -3.4295278   -0.0104827   -1.5873540 
C    -3.6141495    1.3636054   -0.8300089 
C    -2.5646595    2.3256191   -1.5804557 
C     0.6278929    3.6839667   -0.0717281 
C    -0.2908267    3.7806565   -1.3538510 
C    -1.8004272    3.4664854   -0.8277999 
C    -1.6907371    3.2374056    0.7268172 
C    -0.2806150    3.6887283    1.2104415 
C     0.6274722   -1.8604612   -3.2310256 
C    -0.2918517   -3.0187358   -2.6733259 
C    -1.8010754   -2.4052541   -2.6640172 
C    -1.6906317   -0.9443844   -3.2423805 
C    -0.2808509   -0.7519971   -3.8758472 
C     0.6278170   -1.8238238    3.1506340 
C    -0.2914059   -0.7614657    3.8747695 
C    -1.8009439   -1.0598370    3.3394754 
C    -1.6903889   -2.2908691    2.3632482 
C    -0.2807755   -2.9360618    2.5130737 
F     4.3738129    2.2060228    1.2299502 
F     4.8774217    1.7931893   -1.0980385 
F     3.2874747    3.6646792   -1.3397778 
F     4.3756227   -2.2128627    1.2194736 
F     4.8775515    0.0105424    2.0267847 
F     3.2879004   -0.7158650    3.7687280 
F     4.3747462    0.0055802   -2.6016390 
F     4.8771825   -1.8051367   -1.0805106 
F     3.2871587   -2.9494913   -2.5803030 
F    -1.3984345   -4.8351553   -0.0211784 
F     0.3121571   -5.0991576   -1.6954030 
F     2.5190529   -4.6099522   -1.0083215 
F     2.6117797   -4.0670659    1.3447872 
F     0.4106555   -5.0069759    1.5520437 
F    -1.3970710    2.3926767   -4.2540761 
F     0.3138838    3.9743336   -3.6443649 
F     2.5203157    3.1329297   -3.5641669 
F     2.6126352    0.8228499   -4.2693158 
F     0.4122428    1.1152571   -5.1884517 
F    -1.3974504    2.4436519    4.1234769 
F     0.3127258    1.1249768    5.1877450 
F     2.5192462    1.4761711    4.4200650 
F     2.6120389    3.2414693    2.7710999 
F     0.4119140    3.8912337    3.4841057 
F    -4.3739418   -2.2057808    1.2295898 
F    -4.8774354   -1.7927137   -1.0984457 
F    -3.2875711   -3.6643494   -1.3401831 
F    -4.3756491    2.2130745    1.2193929 
F    -4.8776835   -0.0103238    2.0264051 
F    -3.2881905    0.7158153    3.7684742 
F    -4.3745756   -0.0049844   -2.6018731 
F    -4.8770251    1.8056589   -1.0807034 
F    -3.2868681    2.9498680   -2.5803786 
F     1.3984999    4.8354208   -0.0206880 
F    -0.3119564    5.0994514   -1.6952001 
F    -2.5188123    4.6102174   -1.0081874 
F    -2.6119181    4.0672592    1.3449385 
F    -0.4107183    5.0070735    1.5524766 
F     1.3973747   -2.3922287   -4.2541130 
F    -0.3135841   -3.9739216   -3.6446284 
F    -2.5200381   -3.1325829   -3.5645241 
F    -2.6124373   -0.8224236   -4.2693863 
F    -0.4120382   -1.1150003   -5.1884939 
F     1.3972340   -2.4438636    4.1231910 
F    -0.3130014   -1.1253535    5.1875259 
F    -2.5196129   -1.4762173    4.4197483 
F    -2.6122271   -3.2414281    2.7706652 
F    -0.4121589   -3.8913236    3.4836825 
