20
Energy =
C    -1.4595693   -0.0002002   -0.0000282 
C    -0.6833167   -1.2131229   -0.0000156 
C     0.6836640   -1.2128644   -0.0000017 
C     1.4597281   -0.0000355   -0.0000080 
C     0.6835079    1.2129017   -0.0000244 
C    -0.6834334    1.2126123   -0.0000281 
F    -1.3149637    2.3862014   -0.0000318 
F     1.3146721    2.3865710   -0.0000286 
F     1.3151603   -2.3864207    0.0000293 
F    -1.3144932   -2.3867980   -0.0000020 
C    -2.8569389   -0.0001927   -0.0000192 
C    -3.6472329   -1.1830299   -0.0000108 
C    -3.6474177    1.1826383    0.0000009 
C     2.8571871   -0.0000309   -0.0000003 
C     3.6476247   -1.1828213    0.0000184 
C     3.6474209    1.1828636   -0.0000082 
N    -4.3759097   -2.0939531   -0.0000002 
N    -4.3765238    2.0931637    0.0000288 
N     4.3760290    2.0937735   -0.0000108 
N     4.3767451   -2.0933760    0.0000307 
