26
Energy =
C    -2.5902641    0.1778822   -0.0000183 
C    -2.0417691    1.5047582   -0.0000095 
C    -0.6959817    1.7436173    0.0000098 
C     0.2640468    0.6765430   -0.0000007 
C    -0.2480762   -0.6796931   -0.0000072 
C    -1.6187128   -0.8814991   -0.0000121 
C    -3.9731453   -0.0692599   -0.0000202 
C    -4.5523986   -1.3666862   -0.0000190 
C    -4.9540675    0.9592616   -0.0000105 
C     3.9894367    0.0636525   -0.0000082 
C     4.5698401    1.3605257    0.0000000 
C     4.9686669   -0.9666386   -0.0000009 
N    -5.1202533   -2.3864122   -0.0000107 
N    -5.8288783    1.7317724   -0.0000001 
N     5.1365665    2.3808846    0.0000097 
N     5.8412922   -1.7416216    0.0000100 
F    -2.0921353   -2.1268706   -0.0000101 
F    -2.8704053    2.5512719   -0.0000098 
F    -0.2839092    3.0119856    0.0000389 
C     0.7113850   -1.7470392   -0.0000008 
C     1.6349010    0.8780862    0.0000013 
C     2.6061166   -0.1816618   -0.0000125 
C     2.0573618   -1.5083301   -0.0000166 
F     2.8855954   -2.5549098   -0.0000202 
F     2.1086496    2.1233384    0.0000192 
F     0.2992583   -3.0152674    0.0000283 
