20
Energy =
N    -4.1502578   -2.2159839    0.0002096 
N    -4.1503142    2.2159690   -0.0001940 
N     4.1504419   -2.2160841   -0.0002191 
N     4.1504726    2.2161007    0.0001876 
C    -1.4178814    0.0000272   -0.0006777 
C     1.4181224    0.0000254   -0.0007404 
C     0.6802077   -1.2346565   -0.0009086 
C    -0.6799726   -1.2346615   -0.0008180 
C     0.6802094    1.2347099   -0.0008273 
C    -0.6799731    1.2347187   -0.0008469 
C    -2.8165103    0.0000115   -0.0003671 
C     2.8167671    0.0000181   -0.0004405 
C    -3.5582174   -1.2106374   -0.0000516 
C    -3.5582468    1.2106426   -0.0002509 
C     3.5584014   -1.2105982   -0.0003120 
C     3.5584168    1.2106238   -0.0001052 
H     1.2303674   -2.1752336   -0.0010476 
H     1.2303719    2.1752861   -0.0008331 
H    -1.2301320   -2.1752453   -0.0008152 
H    -1.2301284    2.1753056   -0.0009275 
